@<TRIPOS>MOLECULE
MOL
  103   106     1     0     0
SMALL
resp


@<TRIPOS>ATOM
      1 C1           6.9620    -3.1110    -1.6850 ca         1 MOL      -0.291469
      2 C2           7.5770    -1.9280    -1.3490 ca         1 MOL      -0.190903
      3 C3           7.5030    -1.4270    -0.0490 ca         1 MOL       0.013231
      4 C4           6.8250    -2.1700     0.9070 ca         1 MOL      -0.190903
      5 C5           6.1960    -3.3590     0.5820 ca         1 MOL      -0.291469
      6 C6           6.2430    -3.8300    -0.7280 ca         1 MOL       0.485819
      7 H1           5.6790    -3.9050     1.3460 ha         1 MOL       0.195209
      8 H2           6.7810    -1.8290     1.9280 ha         1 MOL       0.177276
      9 H3           7.0130    -3.5000    -2.6840 ha         1 MOL       0.195209
     10 H4           8.1190    -1.3880    -2.1070 ha         1 MOL       0.177276
     11 C7           8.0500    -0.0680     0.2790 c3         1 MOL      -0.149080
     12 N1           6.9270     0.9420     0.1800 n4         1 MOL      -0.048378
     13 H5           8.8150     0.2510    -0.4140 hx         1 MOL       0.141590
     14 H6           8.4370     0.0060     1.2860 hx         1 MOL       0.141590
     15 C8           7.2590     2.4090     0.3410 c3         1 MOL      -0.071717
     16 H7           6.4660     0.8140    -0.7090 hn         1 MOL       0.230922
     17 C9           5.9780     3.1930     0.3370 ca         1 MOL       0.002969
     18 H8           7.9180     2.6630    -0.4780 hx         1 MOL       0.113407
     19 H9           7.8020     2.5040     1.2700 hx         1 MOL       0.113407
     20 C10          5.3480     3.5160    -0.8560 ca         1 MOL      -0.163403
     21 C11          4.0970     4.1110    -0.8710 ca         1 MOL      -0.342137
     22 C12          3.4560     4.3960     0.3300 ca         1 MOL       0.540606
     23 C13          4.1050     4.1210     1.5360 ca         1 MOL      -0.342137
     24 C14          5.3430     3.5240     1.5350 ca         1 MOL      -0.163403
     25 H10          5.8300     3.3090    -1.7970 ha         1 MOL       0.176699
     26 H11          3.6390     4.3490    -1.8100 ha         1 MOL       0.194688
     27 H12          3.6090     4.3730     2.4540 ha         1 MOL       0.194688
     28 H13          5.8210     3.3110     2.4770 ha         1 MOL       0.176699
     29 O1           2.2370     4.9230     0.4260 os         1 MOL      -0.369664
     30 C15          1.3440     4.8790    -0.6770 c3         1 MOL      -0.014437
     31 C16         -0.0600     5.1430    -0.1630 c3         1 MOL       0.053336
     32 H14          1.3990     3.8960    -1.1330 h1         1 MOL       0.065742
     33 H15          1.6400     5.6180    -1.4140 h1         1 MOL       0.065742
     34 C17         -0.3030     6.5950     0.2570 c3         1 MOL      -0.043785
     35 H16         -0.2420     4.4690     0.6690 hc         1 MOL       0.019857
     36 H17         -0.7500     4.8640    -0.9530 hc         1 MOL       0.019857
     37 C18         -1.6670     6.8580     0.9110 c3         1 MOL      -0.100586
     38 H18         -0.2040     7.2310    -0.6210 hc         1 MOL       0.031751
     39 H19          0.4770     6.9000     0.9480 hc         1 MOL       0.031751
     40 C19         -2.8960     6.4560     0.0690 c3         1 MOL       0.002965
     41 H20         -1.7150     7.9190     1.1350 hc         1 MOL       0.037239
     42 H21         -1.7060     6.3500     1.8730 hc         1 MOL       0.037239
     43 C20         -3.4890     5.0930     0.4470 c3         1 MOL       0.071797
     44 H22         -2.6370     6.4670    -0.9880 hc         1 MOL       0.007664
     45 H23         -3.6720     7.2060     0.1880 hc         1 MOL       0.007664
     46 C21         -4.5970     4.6200    -0.4950 c3         1 MOL      -0.023097
     47 H24         -3.8780     5.1540     1.4610 hc         1 MOL      -0.019962
     48 H25         -2.7080     4.3370     0.4730 hc         1 MOL      -0.019962
     49 C22         -5.2490     3.3140    -0.0340 c3         1 MOL       0.091112
     50 H26         -4.1850     4.4870    -1.4950 hc         1 MOL      -0.002618
     51 H27         -5.3590     5.3920    -0.5820 hc         1 MOL      -0.002618
     52 C23         -6.2520     2.7420    -1.0370 c3         1 MOL      -0.061500
     53 H28         -4.4760     2.5710     0.1550 hc         1 MOL      -0.028808
     54 H29         -5.7460     3.4830     0.9200 hc         1 MOL      -0.028808
     55 C24         -6.9770     1.4990    -0.5160 c3         1 MOL       0.071162
     56 H30         -5.7330     2.4970    -1.9620 hc         1 MOL       0.004578
     57 H31         -6.9860     3.5040    -1.2930 hc         1 MOL       0.004578
     58 C25         -7.8890     0.8640    -1.5670 c3         1 MOL       0.141638
     59 H32         -7.5650     1.7740     0.3590 hc         1 MOL      -0.012062
     60 H33         -6.2480     0.7670    -0.1800 hc         1 MOL      -0.012062
     61 C26         -8.7660    -0.2680    -1.0380 c3         1 MOL      -0.361177
     62 H34         -7.2960     0.4900    -2.3960 hc         1 MOL      -0.007445
     63 H35         -8.5580     1.6180    -1.9760 hc         1 MOL      -0.007445
     64 N2          -8.0140    -1.4070    -0.5340 na         1 MOL       0.634454
     65 H36         -9.4160    -0.6350    -1.8210 h1         1 MOL       0.127808
     66 H37         -9.3890     0.0800    -0.2240 h1         1 MOL       0.127808
     67 N3          -7.4010    -2.2180    -1.3630 nc         1 MOL      -0.361576
     68 N4          -6.8470    -3.1430    -0.6860 nd         1 MOL      -0.300022
     69 C27         -7.0890    -2.9510     0.6300 cd         1 MOL       0.521730
     70 C28         -7.8450    -1.8220     0.7330 cc         1 MOL      -0.735653
     71 H38         -8.2680    -1.3070     1.5680 h4         1 MOL       0.279491
     72 O2           5.6650    -4.9510    -1.1560 os         1 MOL      -0.424126
     73 C29         -6.6350    -3.8990     1.7070 c3         1 MOL      -0.259306
     74 C30          4.5710    -5.5480    -0.4710 c3         1 MOL       0.182011
     75 C31          3.3040    -4.7120    -0.5820 c3         1 MOL       0.035242
     76 H39          4.8380    -5.7470     0.5610 h1         1 MOL       0.033486
     77 H40          4.4450    -6.5010    -0.9630 h1         1 MOL       0.033486
     78 C32          2.0740    -5.4130    -0.0000 c3         1 MOL      -0.032030
     79 H41          3.1380    -4.4890    -1.6320 hc         1 MOL      -0.001543
     80 H42          3.4470    -3.7590    -0.0800 hc         1 MOL      -0.001543
     81 C33          0.8380    -4.5100    -0.0060 c3         1 MOL       0.031567
     82 H43          2.2780    -5.7340     1.0200 hc         1 MOL       0.006419
     83 H44          1.8700    -6.3170    -0.5710 hc         1 MOL       0.006419
     84 C34         -5.4400    -4.7830     1.3350 c3         1 MOL       0.001093
     85 H45         -7.4670    -4.5470     1.9700 hc         1 MOL       0.082932
     86 H46         -6.4030    -3.3290     2.6030 hc         1 MOL       0.082932
     87 C35         -4.1270    -4.0320     1.1070 c3         1 MOL      -0.135402
     88 H47         -5.6840    -5.3560     0.4470 hc         1 MOL       0.023806
     89 H48         -5.3030    -5.5010     2.1410 hc         1 MOL       0.023806
     90 C36         -2.9450    -4.9830     0.9010 c3         1 MOL       0.064120
     91 H49         -3.9220    -3.3870     1.9610 hc         1 MOL       0.037730
     92 H50         -4.2280    -3.3840     0.2420 hc         1 MOL       0.037730
     93 C37         -1.6390    -4.2660     0.5560 c3         1 MOL      -0.030970
     94 H51         -3.1840    -5.6860     0.1060 hc         1 MOL      -0.002708
     95 H52         -2.8040    -5.5790     1.8020 hc         1 MOL      -0.002708
     96 C38         -0.4390    -5.2120     0.4590 c3         1 MOL       0.050193
     97 H53          0.6830    -4.1190    -1.0100 hc         1 MOL      -0.016189
     98 H54          1.0280    -3.6470     0.6300 hc         1 MOL      -0.016189
     99 H55         -0.2680    -5.6750     1.4290 hc         1 MOL      -0.009842
    100 H56         -0.6710    -6.0230    -0.2290 hc         1 MOL      -0.009842
    101 H57         -1.4320    -3.5050     1.3080 hc         1 MOL       0.004273
    102 H58         -1.7620    -3.7380    -0.3870 hc         1 MOL       0.004273
    103 H59          6.2210     0.7010     0.8610 hn         1 MOL       0.230922
@<TRIPOS>BOND
     1     1     2 ar  
     2     1     6 ar  
     3     1     9 1   
     4     2     3 ar  
     5     2    10 1   
     6     3     4 ar  
     7     3    11 1   
     8     4     5 ar  
     9     4     8 1   
    10     5     6 ar  
    11     5     7 1   
    12     6    72 1   
    13    11    12 1   
    14    11    13 1   
    15    11    14 1   
    16    12    15 1   
    17    12    16 1   
    18    12   103 1   
    19    15    17 1   
    20    15    18 1   
    21    15    19 1   
    22    17    20 ar  
    23    17    24 ar  
    24    20    21 ar  
    25    20    25 1   
    26    21    22 ar  
    27    21    26 1   
    28    22    23 ar  
    29    22    29 1   
    30    23    24 ar  
    31    23    27 1   
    32    24    28 1   
    33    29    30 1   
    34    30    31 1   
    35    30    32 1   
    36    30    33 1   
    37    31    34 1   
    38    31    35 1   
    39    31    36 1   
    40    34    37 1   
    41    34    38 1   
    42    34    39 1   
    43    37    40 1   
    44    37    41 1   
    45    37    42 1   
    46    40    43 1   
    47    40    44 1   
    48    40    45 1   
    49    43    46 1   
    50    43    47 1   
    51    43    48 1   
    52    46    49 1   
    53    46    50 1   
    54    46    51 1   
    55    49    52 1   
    56    49    53 1   
    57    49    54 1   
    58    52    55 1   
    59    52    56 1   
    60    52    57 1   
    61    55    58 1   
    62    55    59 1   
    63    55    60 1   
    64    58    61 1   
    65    58    62 1   
    66    58    63 1   
    67    61    64 1   
    68    61    65 1   
    69    61    66 1   
    70    64    67 1   
    71    64    70 1   
    72    67    68 2   
    73    68    69 1   
    74    69    70 2   
    75    69    73 1   
    76    70    71 1   
    77    72    74 1   
    78    73    84 1   
    79    73    85 1   
    80    73    86 1   
    81    74    75 1   
    82    74    76 1   
    83    74    77 1   
    84    75    78 1   
    85    75    79 1   
    86    75    80 1   
    87    78    81 1   
    88    78    82 1   
    89    78    83 1   
    90    81    96 1   
    91    81    97 1   
    92    81    98 1   
    93    84    87 1   
    94    84    88 1   
    95    84    89 1   
    96    87    90 1   
    97    87    91 1   
    98    87    92 1   
    99    90    93 1   
   100    90    94 1   
   101    90    95 1   
   102    93    96 1   
   103    93   101 1   
   104    93   102 1   
   105    96    99 1   
   106    96   100 1   
@<TRIPOS>SUBSTRUCTURE
     1 MOL         1 TEMP              0 ****  ****    0 ROOT
