@<TRIPOS>MOLECULE
MOL
   56    56     1     0     0
SMALL
resp


@<TRIPOS>ATOM
      1 C1           2.3090    -3.7120     0.4300 c3         1 MOL       0.171803
      2 C2           2.9800    -2.7030     1.3330 c3         1 MOL       0.171803
      3 O1           3.5140    -1.6680     0.5680 os         1 MOL      -0.373460
      4 H1           3.7720    -3.1990     1.8970 h1         1 MOL       0.007463
      5 H2           2.2490    -2.3230     2.0420 h1         1 MOL       0.007463
      6 C3           4.0240    -0.6130     1.3210 c3         1 MOL       0.171803
      7 C4           4.5590     0.4630     0.4060 c3         1 MOL       0.171803
      8 H3           4.8340    -0.9630     1.9640 h1         1 MOL       0.007463
      9 H4           3.2510    -0.1870     1.9560 h1         1 MOL       0.007463
     10 O2           3.5000     1.0860    -0.2450 os         1 MOL      -0.373460
     11 H5           5.2500     0.0230    -0.3120 h1         1 MOL       0.007463
     12 H6           5.1140     1.1850     1.0060 h1         1 MOL       0.007463
     13 C5           3.8560     2.1750    -1.0320 c3         1 MOL       0.171803
     14 C6           2.6150     2.7450    -1.6770 c3         1 MOL       0.171803
     15 H7           4.5530     1.8710    -1.8150 h1         1 MOL       0.007463
     16 H8           4.3410     2.9430    -0.4320 h1         1 MOL       0.007463
     17 O3           1.8060     3.3150    -0.6970 os         1 MOL      -0.373460
     18 H9           2.0850     1.9480    -2.1930 h1         1 MOL       0.007463
     19 H10          2.9070     3.4920    -2.4170 h1         1 MOL       0.007463
     20 C7           0.5570     3.7460    -1.1370 c3         1 MOL       0.171803
     21 C8          -0.3710     3.8780     0.0490 c3         1 MOL       0.171803
     22 H11          0.1260     3.0330    -1.8350 h1         1 MOL       0.007463
     23 H12          0.6430     4.7070    -1.6460 h1         1 MOL       0.007463
     24 O4          -0.6480     2.5990     0.5230 os         1 MOL      -0.373460
     25 H13         -1.2780     4.3900    -0.2690 h1         1 MOL       0.007463
     26 H14          0.1040     4.4810     0.8200 h1         1 MOL       0.007463
     27 C9          -1.4220     2.5020     1.6760 c3         1 MOL       0.171803
     28 C10         -2.9150     2.5370     1.4040 c3         1 MOL       0.171803
     29 H15         -1.1780     1.5500     2.1290 h1         1 MOL       0.007463
     30 H16         -1.1680     3.2900     2.3840 h1         1 MOL       0.007463
     31 O5          -3.2400     1.4700     0.5690 os         1 MOL      -0.373460
     32 H17         -3.2110     3.4790     0.9410 h1         1 MOL       0.007463
     33 H18         -3.4450     2.4610     2.3540 h1         1 MOL       0.007463
     34 C11         -4.6000     1.2860     0.3320 c3         1 MOL       0.171803
     35 C12         -4.7850     0.1870    -0.6970 c3         1 MOL       0.171803
     36 H19         -5.0480     2.2040    -0.0520 h1         1 MOL       0.007463
     37 H20         -5.1180     1.0200     1.2530 h1         1 MOL       0.007463
     38 O6          -4.4700    -1.0890    -0.2350 os         1 MOL      -0.373460
     39 H21         -4.2010     0.4310    -1.5810 h1         1 MOL       0.007463
     40 H22         -5.8310     0.1560    -0.9810 h1         1 MOL       0.007463
     41 C13         -3.1120    -1.4430    -0.1660 c3         1 MOL       0.171803
     42 O7           1.1060    -3.1860    -0.0330 os         1 MOL      -0.373460
     43 H23          2.9730    -3.9530    -0.3980 h1         1 MOL       0.007463
     44 H24          2.1270    -4.6270     0.9930 h1         1 MOL       0.007463
     45 C14         -3.0490    -2.9570    -0.3070 c3         1 MOL       0.171803
     46 H25         -2.6760    -1.1420     0.7780 h1         1 MOL       0.007463
     47 H26         -2.5530    -0.9500    -0.9550 h1         1 MOL       0.007463
     48 C15          0.4140    -4.0120    -0.9130 c3         1 MOL       0.171803
     49 C16         -0.9170    -3.3810    -1.2510 c3         1 MOL       0.171803
     50 H27          0.2430    -4.9920    -0.4720 h1         1 MOL       0.007463
     51 H28          0.9870    -4.1510    -1.8310 h1         1 MOL       0.007463
     52 O8          -1.7540    -3.4560    -0.1370 os         1 MOL      -0.373460
     53 H29         -1.3610    -3.9190    -2.0890 h1         1 MOL       0.007463
     54 H30         -0.7500    -2.3540    -1.5600 h1         1 MOL       0.007463
     55 H31         -3.6620    -3.4060     0.4630 h1         1 MOL       0.007463
     56 H32         -3.4580    -3.2540    -1.2710 h1         1 MOL       0.007463
@<TRIPOS>BOND
     1     1     2 1   
     2     1    42 1   
     3     1    43 1   
     4     1    44 1   
     5     2     3 1   
     6     2     4 1   
     7     2     5 1   
     8     3     6 1   
     9     6     7 1   
    10     6     8 1   
    11     6     9 1   
    12     7    10 1   
    13     7    11 1   
    14     7    12 1   
    15    10    13 1   
    16    13    14 1   
    17    13    15 1   
    18    13    16 1   
    19    14    17 1   
    20    14    18 1   
    21    14    19 1   
    22    17    20 1   
    23    20    21 1   
    24    20    22 1   
    25    20    23 1   
    26    21    24 1   
    27    21    25 1   
    28    21    26 1   
    29    24    27 1   
    30    27    28 1   
    31    27    29 1   
    32    27    30 1   
    33    28    31 1   
    34    28    32 1   
    35    28    33 1   
    36    31    34 1   
    37    34    35 1   
    38    34    36 1   
    39    34    37 1   
    40    35    38 1   
    41    35    39 1   
    42    35    40 1   
    43    38    41 1   
    44    41    45 1   
    45    41    46 1   
    46    41    47 1   
    47    42    48 1   
    48    45    52 1   
    49    45    55 1   
    50    45    56 1   
    51    48    49 1   
    52    48    50 1   
    53    48    51 1   
    54    49    52 1   
    55    49    53 1   
    56    49    54 1   
@<TRIPOS>SUBSTRUCTURE
     1 MOL         1 TEMP              0 ****  ****    0 ROOT
