@<TRIPOS>MOLECULE
MOL
  120   132     1     0     0
SMALL
resp


@<TRIPOS>ATOM
      1 C1           6.2610     4.3970    -1.3240 ca         1 MOL      -0.150195
      2 C2           6.9700     3.2120    -1.3590 ca         1 MOL      -0.150195
      3 C3           6.3880     5.2860    -0.2600 cp         1 MOL       0.037627
      4 C4           7.8290     2.8560    -0.3250 cp         1 MOL       0.037627
      5 C5           8.0590     3.8010     0.6720 ca         1 MOL      -0.150195
      6 C6           7.3580     4.9960     0.6990 ca         1 MOL      -0.150195
      7 H1           7.5350     5.6830     1.5070 ha         1 MOL       0.131382
      8 H2           8.7570     3.5850     1.4620 ha         1 MOL       0.131382
      9 H3           5.5220     4.5720    -2.0830 ha         1 MOL       0.131382
     10 H4           6.7640     2.5080    -2.1440 ha         1 MOL       0.131382
     11 C7           8.2420     1.4270    -0.2140 cp         1 MOL       0.037627
     12 C8           8.6390     0.6740    -1.3170 ca         1 MOL      -0.150195
     13 C9           8.6380    -0.7090    -1.2740 ca         1 MOL      -0.150195
     14 C10          8.2300    -1.3940    -0.1290 cp         1 MOL       0.037627
     15 C11          7.9890     0.7440     0.9720 ca         1 MOL      -0.150195
     16 C12          7.9800    -0.6380     1.0120 ca         1 MOL      -0.150195
     17 H5           7.6810     1.2920     1.8440 ha         1 MOL       0.131382
     18 H6           7.6630    -1.1250     1.9160 ha         1 MOL       0.131382
     19 H7           8.8990     1.1700    -2.2350 ha         1 MOL       0.131382
     20 H8           8.9020    -1.2600    -2.1590 ha         1 MOL       0.131382
     21 C13          5.3440     6.3350    -0.0700 cp         1 MOL       0.037627
     22 C14          4.8450     6.5960     1.2050 ca         1 MOL      -0.150195
     23 C15          3.6410     7.2500     1.3830 ca         1 MOL      -0.150195
     24 C16          4.6630     6.9020    -1.1460 ca         1 MOL      -0.150195
     25 C17          3.4460     7.5360    -0.9680 ca         1 MOL      -0.150195
     26 C18          2.8700     7.6500     0.2950 cp         1 MOL       0.037627
     27 H9           5.0420     6.7820    -2.1440 ha         1 MOL       0.131382
     28 H10          2.8980     7.8580    -1.8360 ha         1 MOL       0.131382
     29 H11          5.3490     6.2020     2.0680 ha         1 MOL       0.131382
     30 H12          3.2620     7.3760     2.3810 ha         1 MOL       0.131382
     31 C19          7.8180    -2.8270    -0.1600 cp         1 MOL       0.037627
     32 C20          7.1000    -3.2960    -1.2560 ca         1 MOL      -0.150195
     33 C21          6.3950    -4.4830    -1.1960 ca         1 MOL      -0.150195
     34 C22          7.9120    -3.6660     0.9500 ca         1 MOL      -0.150195
     35 C23          7.2010    -4.8520     1.0120 ca         1 MOL      -0.150195
     36 C24          6.3730    -5.2500    -0.0360 cp         1 MOL       0.037627
     37 H13          8.5050    -3.3670     1.7960 ha         1 MOL       0.131382
     38 H14          7.2550    -5.4490     1.9060 ha         1 MOL       0.131382
     39 H15          6.9980    -2.6800    -2.1300 ha         1 MOL       0.131382
     40 H16          5.7670    -4.7540    -2.0250 ha         1 MOL       0.131382
     41 C25          5.3130    -6.2880     0.1170 cp         1 MOL       0.037627
     42 C26          4.5210    -6.2810     1.2610 ca         1 MOL      -0.150195
     43 C27          4.9190    -7.1190    -0.9310 ca         1 MOL      -0.150195
     44 C28          3.7140    -7.7980    -0.8890 ca         1 MOL      -0.150195
     45 C29          2.8550    -7.6720     0.2010 cp         1 MOL       0.037627
     46 C30          3.3170    -6.9580     1.3020 ca         1 MOL      -0.150195
     47 H17          4.7900    -5.6510     2.0900 ha         1 MOL       0.131382
     48 H18          2.6830    -6.8350     2.1610 ha         1 MOL       0.131382
     49 H19          3.4180    -8.3910    -1.7360 ha         1 MOL       0.131382
     50 H20          5.5340    -7.1960    -1.8100 ha         1 MOL       0.131382
     51 C31          1.4140     7.9340     0.4480 cp         1 MOL       0.037627
     52 C32          0.6880     7.1400     1.3330 ca         1 MOL      -0.150195
     53 C33          0.6920     8.8030    -0.3680 ca         1 MOL      -0.150195
     54 C34         -0.6950     8.8030    -0.3680 ca         1 MOL      -0.150195
     55 C35         -1.4160     7.9330     0.4480 cp         1 MOL       0.037627
     56 C36         -0.6900     7.1400     1.3330 ca         1 MOL      -0.150195
     57 H21          1.2010     6.4390     1.9640 ha         1 MOL       0.131382
     58 H22         -1.2030     6.4390     1.9640 ha         1 MOL       0.131382
     59 H23         -1.2160     9.4650    -1.0370 ha         1 MOL       0.131382
     60 H24          1.2130     9.4650    -1.0370 ha         1 MOL       0.131382
     61 C37         -2.8720     7.6500     0.2950 cp         1 MOL       0.037627
     62 C38         -3.4480     7.5360    -0.9680 ca         1 MOL      -0.150195
     63 C39         -3.6430     7.2490     1.3830 ca         1 MOL      -0.150195
     64 C40         -4.8470     6.5950     1.2050 ca         1 MOL      -0.150195
     65 C41         -4.6650     6.9010    -1.1460 ca         1 MOL      -0.150195
     66 C42         -5.3460     6.3340    -0.0700 cp         1 MOL       0.037627
     67 H25         -3.2640     7.3750     2.3810 ha         1 MOL       0.131382
     68 H26         -5.3510     6.2000     2.0680 ha         1 MOL       0.131382
     69 H27         -5.0440     6.7800    -2.1440 ha         1 MOL       0.131382
     70 H28         -2.9010     7.8580    -1.8360 ha         1 MOL       0.131382
     71 C43          1.4130    -8.0500     0.1340 cp         1 MOL       0.037627
     72 C44          0.6930    -8.4880     1.2440 ca         1 MOL      -0.150195
     73 C45          0.6920    -7.7450    -1.0170 ca         1 MOL      -0.150195
     74 C46         -0.6900    -7.7460    -1.0170 ca         1 MOL      -0.150195
     75 C47         -0.6910    -8.4880     1.2440 ca         1 MOL      -0.150195
     76 C48         -1.4110    -8.0500     0.1340 cp         1 MOL       0.037627
     77 H29          1.2090    -7.3990    -1.8930 ha         1 MOL       0.131382
     78 H30         -1.2070    -7.3990    -1.8930 ha         1 MOL       0.131382
     79 H31          1.2170    -8.7860     2.1350 ha         1 MOL       0.131382
     80 H32         -1.2140    -8.7870     2.1350 ha         1 MOL       0.131382
     81 C49         -6.3900     5.2840    -0.2600 cp         1 MOL       0.037627
     82 C50         -6.2620     4.3950    -1.3240 ca         1 MOL      -0.150195
     83 C51         -6.9710     3.2100    -1.3590 ca         1 MOL      -0.150195
     84 C52         -7.8300     2.8530    -0.3250 cp         1 MOL       0.037627
     85 C53         -8.0610     3.7990     0.6720 ca         1 MOL      -0.150195
     86 C54         -7.3600     4.9930     0.6990 ca         1 MOL      -0.150195
     87 H33         -7.5370     5.6800     1.5070 ha         1 MOL       0.131382
     88 H34         -8.7580     3.5820     1.4620 ha         1 MOL       0.131382
     89 H35         -5.5230     4.5700    -2.0830 ha         1 MOL       0.131382
     90 H36         -6.7640     2.5060    -2.1440 ha         1 MOL       0.131382
     91 C55         -2.8520    -7.6730     0.2010 cp         1 MOL       0.037627
     92 C56         -3.7120    -7.7990    -0.8890 ca         1 MOL      -0.150195
     93 C57         -4.9170    -7.1200    -0.9310 ca         1 MOL      -0.150195
     94 C58         -5.3110    -6.2890     0.1170 cp         1 MOL       0.037627
     95 C59         -4.5190    -6.2820     1.2610 ca         1 MOL      -0.150195
     96 C60         -3.3150    -6.9590     1.3020 ca         1 MOL      -0.150195
     97 H37         -2.6810    -6.8360     2.1610 ha         1 MOL       0.131382
     98 H38         -4.7880    -5.6520     2.0900 ha         1 MOL       0.131382
     99 H39         -3.4160    -8.3930    -1.7360 ha         1 MOL       0.131382
    100 H40         -5.5320    -7.1980    -1.8100 ha         1 MOL       0.131382
    101 C61         -6.3720    -5.2520    -0.0360 cp         1 MOL       0.037627
    102 C62         -6.3940    -4.4850    -1.1960 ca         1 MOL      -0.150195
    103 C63         -7.0990    -3.2990    -1.2560 ca         1 MOL      -0.150195
    104 C64         -7.8180    -2.8290    -0.1600 cp         1 MOL       0.037627
    105 C65         -7.9110    -3.6680     0.9500 ca         1 MOL      -0.150195
    106 C66         -7.2000    -4.8540     1.0120 ca         1 MOL      -0.150195
    107 H41         -7.2540    -5.4510     1.9060 ha         1 MOL       0.131382
    108 H42         -8.5040    -3.3700     1.7960 ha         1 MOL       0.131382
    109 H43         -5.7660    -4.7560    -2.0250 ha         1 MOL       0.131382
    110 H44         -6.9970    -2.6820    -2.1300 ha         1 MOL       0.131382
    111 C67         -8.2430     1.4240    -0.2140 cp         1 MOL       0.037627
    112 C68         -8.6390     0.6710    -1.3170 ca         1 MOL      -0.150195
    113 C69         -7.9900     0.7420     0.9720 ca         1 MOL      -0.150195
    114 C70         -7.9800    -0.6400     1.0120 ca         1 MOL      -0.150195
    115 C71         -8.6380    -0.7120    -1.2740 ca         1 MOL      -0.150195
    116 C72         -8.2300    -1.3960    -0.1300 cp         1 MOL       0.037627
    117 H45         -7.6620    -1.1280     1.9160 ha         1 MOL       0.131382
    118 H46         -7.6820     1.2890     1.8440 ha         1 MOL       0.131382
    119 H47         -8.8990     1.1680    -2.2360 ha         1 MOL       0.131382
    120 H48         -8.9020    -1.2620    -2.1590 ha         1 MOL       0.131382
@<TRIPOS>BOND
     1     1     2 ar  
     2     1     3 ar  
     3     1     9 1   
     4     2     4 ar  
     5     2    10 1   
     6     3     6 ar  
     7     3    21 1   
     8     4     5 ar  
     9     4    11 1   
    10     5     6 ar  
    11     5     8 1   
    12     6     7 1   
    13    11    12 ar  
    14    11    15 ar  
    15    12    13 ar  
    16    12    19 1   
    17    13    14 ar  
    18    13    20 1   
    19    14    16 ar  
    20    14    31 1   
    21    15    16 ar  
    22    15    17 1   
    23    16    18 1   
    24    21    22 ar  
    25    21    24 ar  
    26    22    23 ar  
    27    22    29 1   
    28    23    26 ar  
    29    23    30 1   
    30    24    25 ar  
    31    24    27 1   
    32    25    26 ar  
    33    25    28 1   
    34    26    51 1   
    35    31    32 ar  
    36    31    34 ar  
    37    32    33 ar  
    38    32    39 1   
    39    33    36 ar  
    40    33    40 1   
    41    34    35 ar  
    42    34    37 1   
    43    35    36 ar  
    44    35    38 1   
    45    36    41 1   
    46    41    42 ar  
    47    41    43 ar  
    48    42    46 ar  
    49    42    47 1   
    50    43    44 ar  
    51    43    50 1   
    52    44    45 ar  
    53    44    49 1   
    54    45    46 ar  
    55    45    71 1   
    56    46    48 1   
    57    51    52 ar  
    58    51    53 ar  
    59    52    56 ar  
    60    52    57 1   
    61    53    54 ar  
    62    53    60 1   
    63    54    55 ar  
    64    54    59 1   
    65    55    56 ar  
    66    55    61 1   
    67    56    58 1   
    68    61    62 ar  
    69    61    63 ar  
    70    62    65 ar  
    71    62    70 1   
    72    63    64 ar  
    73    63    67 1   
    74    64    66 ar  
    75    64    68 1   
    76    65    66 ar  
    77    65    69 1   
    78    66    81 1   
    79    71    72 ar  
    80    71    73 ar  
    81    72    75 ar  
    82    72    79 1   
    83    73    74 ar  
    84    73    77 1   
    85    74    76 ar  
    86    74    78 1   
    87    75    76 ar  
    88    75    80 1   
    89    76    91 1   
    90    81    82 ar  
    91    81    86 ar  
    92    82    83 ar  
    93    82    89 1   
    94    83    84 ar  
    95    83    90 1   
    96    84    85 ar  
    97    84   111 1   
    98    85    86 ar  
    99    85    88 1   
   100    86    87 1   
   101    91    92 ar  
   102    91    96 ar  
   103    92    93 ar  
   104    92    99 1   
   105    93    94 ar  
   106    93   100 1   
   107    94    95 ar  
   108    94   101 1   
   109    95    96 ar  
   110    95    98 1   
   111    96    97 1   
   112   101   102 ar  
   113   101   106 ar  
   114   102   103 ar  
   115   102   109 1   
   116   103   104 ar  
   117   103   110 1   
   118   104   105 ar  
   119   104   116 1   
   120   105   106 ar  
   121   105   108 1   
   122   106   107 1   
   123   111   112 ar  
   124   111   113 ar  
   125   112   115 ar  
   126   112   119 1   
   127   113   114 ar  
   128   113   118 1   
   129   114   116 ar  
   130   114   117 1   
   131   115   116 ar  
   132   115   120 1   
@<TRIPOS>SUBSTRUCTURE
     1 MOL         1 TEMP              0 ****  ****    0 ROOT
